
This summary file was generated by TurbSim (v1.06.00, 21-Sep-2012) on 08-Oct-2019 at 19:07:47.


Runtime Options:

     13428  Random seed #1
    RANLUX  Type of random number generator
         F  Output binary HH turbulence parameters?
         F  Output formatted turbulence parameters?
         F  Output AeroDyn HH files?
         T  Output AeroDyn FF files?
         F  Output BLADED FF files?
         T  Output tower data?
         F  Output formatted FF files?
         F  Output coherent turbulence time step file?
         T  Clockwise rotation when looking downwind?
 0 -  NONE  IEC turbulence models scaled to exact specified standard deviation


Turbine/Model Specifications:

        31  Vertical grid-point matrix dimension
        31  Horizontal grid-point matrix dimension
     0.050  Time step [seconds]
   900.000  Analysis time [seconds]
   300.000  Usable output time [seconds]
    90.000  Hub height [m]
   145.000  Grid height [m]
   145.000  Grid width [m]
     0.000  Vertical flow angle [degrees]
     0.000  Horizontal flow angle [degrees]


Meteorological Boundary Conditions:

    IECKAI  IEC Kaimal spectral model
         1  IEC standard: IEC 61400-1 Ed. 3: 2005
         B  IEC turbulence characteristic
       NTM  IEC Normal Turbulence Model
       N/A  IEC Extreme Turbulence Model (ETM) "c" parameter [m/s]
       PL   Wind profile type
    90.000  Reference height [m]
    12.000  Reference wind speed [m/s]
       N/A  Jet height [m]
     0.200  Power law exponent
     0.030  Surface roughness length [m]


You have requested that the following file(s) be generated:

   90m_12mps_twr.bts (AeroDyn/TurbSim full-field wind file)


Turbulence Simulation Scaling Parameter Summary:

   Turbulence model used                            =  IEC Kaimal
   Turbulence characteristic                        =  B
   IEC turbulence type                              =  Normal Turbulence Model
   IEC standard                                     =  IEC 61400-1 Ed. 3: 2005
   Mean wind speed at hub height                    =   12.000 m/s
   Expected value of turbulence intensity at 15 m/s =   14.000%
   Characteristic value of standard deviation       =    2.044 m/s
   Turbulence scale                                 =   42.000 m
   u-component integral scale                       =  340.200 m
   Coherency scale                                  =  340.200 m
   Characteristic value of hub turbulence intensity =   17.033%
   Gradient Richardson number                       =    0.000

   Wind profile type                                =  Power law
   Power law exponent                               =    0.200
   Mean shear across rotor disk                     =    0.033 (m/s)/m
   Assumed rotor diameter                           =  145.000 m
   Surface roughness length                         =    0.030 m

   Number of time steps in the FFT                  =    18000
   Number of time steps output                      =     6242


Mean Flow Angles:

   Vertical   =   0.0 degrees
   Horizontal =   0.0 degrees

Mean Wind Speed Profile:

   Height    Wind Speed   Horizontal Angle  U-comp (X)   V-comp (Y)   W-comp (Z)
     (m)        (m/s)         (degrees)       (m/s)        (m/s)        (m/s)   
   ------    ----------   ----------------  ----------   ----------   ----------
    162.5       13.51            0.00         13.51         0.00         0.00
    157.7       13.42            0.00         13.42         0.00         0.00
    152.8       13.34            0.00         13.34         0.00         0.00
    148.0       13.26            0.00         13.26         0.00         0.00
    143.2       13.17            0.00         13.17         0.00         0.00
    138.3       13.08            0.00         13.08         0.00         0.00
    133.5       12.98            0.00         12.98         0.00         0.00
    128.7       12.89            0.00         12.89         0.00         0.00
    123.8       12.79            0.00         12.79         0.00         0.00
    119.0       12.69            0.00         12.69         0.00         0.00
    114.2       12.58            0.00         12.58         0.00         0.00
    109.3       12.48            0.00         12.48         0.00         0.00
    104.5       12.36            0.00         12.36         0.00         0.00
     99.7       12.25            0.00         12.25         0.00         0.00
     94.8       12.13            0.00         12.13         0.00         0.00
     90.0       12.00            0.00         12.00         0.00         0.00
     85.2       11.87            0.00         11.87         0.00         0.00
     80.3       11.73            0.00         11.73         0.00         0.00
     75.5       11.59            0.00         11.59         0.00         0.00
     70.7       11.43            0.00         11.43         0.00         0.00
     65.8       11.27            0.00         11.27         0.00         0.00
     61.0       11.10            0.00         11.10         0.00         0.00
     56.2       10.92            0.00         10.92         0.00         0.00
     51.3       10.73            0.00         10.73         0.00         0.00
     46.5       10.52            0.00         10.52         0.00         0.00
     41.7       10.29            0.00         10.29         0.00         0.00
     36.8       10.04            0.00         10.04         0.00         0.00
     32.0        9.76            0.00          9.76         0.00         0.00
     27.2        9.44            0.00          9.44         0.00         0.00
     22.3        9.08            0.00          9.08         0.00         0.00
     17.5        8.65            0.00          8.65         0.00         0.00
     12.7        8.11            0.00          8.11         0.00         0.00
      7.8        7.36            0.00          7.36         0.00         0.00
      3.0        6.08            0.00          6.08         0.00         0.00


Harvested Random Seeds after Generation of the Random Numbers:

    241843500 K1
            0 K2


Hub-Height Simulated Turbulence Statistical Summary:

   Type of Wind        Min (m/s)   Mean (m/s)    Max (m/s)  Sigma (m/s)       TI (%)
   ----------------    ---------   ----------    ---------  -----------       ------
   Longitudinal (u)         3.27        12.00        19.50        2.271       18.921
   Lateral (v)             -5.04         0.00         5.55        1.606       13.385
   Vertical (w)            -3.55         0.00         3.90        1.000        8.335
   U component              3.27        12.00        19.50        2.271       18.921
   V component             -5.04         0.00         5.55        1.606       13.385
   W component             -3.55         0.00         3.90        1.000        8.335
   Horizontal (U&V)         3.39        12.11        19.50        2.232       18.427
   Total                    3.64        12.16        19.52        2.229       18.340

                       Min Reynolds     Mean Reynolds    Max Reynolds    Correlation
   Product             Stress (m/s)^2   Stress (m/s)^2   Stress (m/s)^2  Coefficient
   ----------------    --------------   --------------   --------------  -----------
   u'w'                    -23.592            -0.194            16.488        -0.085
   u'v'                    -19.087             0.001            26.038         0.000
   v'w'                     -9.428            -0.003             9.610        -0.002


   Friction Velocity (Ustar)  =      0.441 m/s
   Maximum Instantaneous TKE  =     39.603 (m/s)^2
   Maximum Instantaneous CTKE =     13.647 (m/s)^2


Grid Point Variance Summary:

   Y-coord  -72.50  -67.67  -62.83  -58.00  -53.17  -48.33  -43.50  -38.67  -33.83  -29.00  -24.17  -19.33  -14.50   -9.67   -4.83    0.00    4.83    9.67   14.50   19.33   24.17   29.00   33.83   38.67   43.50   48.33   53.17   58.00   62.83   67.67   72.50

   Height   Standard deviation at grid points for the u component:
   162.50    2.056   2.023   1.967   1.962   1.989   2.052   2.064   2.053   2.147   2.173   2.076   2.066   2.195   2.189   2.108   2.132   2.161   2.177   2.163   2.163   2.208   2.186   2.207   2.237   2.163   2.207   2.245   2.195   2.188   2.203   2.217
   157.67    2.138   2.084   2.039   2.049   2.048   2.017   2.099   2.003   2.116   2.185   2.096   2.162   2.268   2.213   2.190   2.099   2.120   2.186   2.193   2.021   2.085   2.136   2.176   2.159   2.219   2.172   2.180   2.204   2.188   2.151   2.069
   152.83    2.117   2.090   2.108   2.089   2.033   2.090   2.092   2.055   2.015   2.067   2.155   2.178   2.267   2.201   2.218   2.217   2.164   2.127   2.104   1.987   2.033   1.975   2.005   2.158   2.172   2.163   2.111   2.092   2.121   2.008   2.069
   148.00    2.167   2.031   2.055   2.089   2.097   2.177   2.130   2.155   2.072   2.149   2.218   2.214   2.241   2.218   2.214   2.236   2.183   2.217   2.121   2.048   1.902   1.939   2.002   2.088   2.123   2.060   2.009   1.942   2.040   2.043   1.988
   143.17    2.077   2.113   2.090   2.127   2.170   2.147   2.137   2.135   2.263   2.193   2.170   2.153   2.212   2.257   2.200   2.107   2.153   2.133   1.962   2.008   1.981   2.047   2.055   2.038   2.061   2.039   1.977   1.889   1.889   2.017   2.130
   138.33    2.134   2.141   2.067   2.104   2.184   2.151   2.169   2.183   2.234   2.167   2.084   2.117   2.104   2.205   2.279   2.173   2.209   2.168   2.051   2.105   2.130   2.126   2.089   2.036   2.078   1.967   1.964   1.973   2.007   2.050   2.144
   133.50    2.075   2.099   2.069   2.138   2.117   2.074   2.137   2.228   2.217   2.146   2.109   2.134   2.227   2.263   2.290   2.202   2.208   2.255   2.090   2.163   2.180   2.212   2.077   2.055   2.108   2.141   2.103   2.125   2.142   2.073   2.123
   128.67    2.156   2.135   2.096   2.094   2.094   2.114   2.157   2.204   2.177   2.140   2.125   2.227   2.133   2.170   2.214   2.215   2.214   2.308   2.281   2.193   2.163   2.257   2.324   2.203   2.216   2.157   2.226   2.242   2.181   2.159   2.241
   123.83    2.172   2.103   2.145   2.067   2.057   2.094   2.141   2.123   2.195   2.110   2.185   2.210   2.184   2.138   2.139   2.165   2.205   2.348   2.269   2.264   2.229   2.332   2.421   2.377   2.205   2.257   2.221   2.240   2.335   2.333   2.262
   119.00    2.063   2.083   2.100   1.992   1.980   2.044   1.997   2.105   2.057   2.034   2.129   2.085   2.157   2.096   2.114   2.219   2.245   2.272   2.351   2.259   2.282   2.337   2.386   2.287   2.249   2.176   2.232   2.288   2.314   2.392   2.240
   114.17    2.013   2.055   2.096   2.095   2.037   1.971   1.886   1.940   2.004   2.046   2.081   2.088   2.083   1.997   2.087   2.142   2.122   2.212   2.233   2.351   2.240   2.254   2.279   2.273   2.165   2.223   2.193   2.245   2.257   2.329   2.244
   109.33    2.063   2.054   1.977   1.987   1.934   1.979   1.919   1.908   1.948   2.065   1.958   2.039   1.994   2.037   2.113   2.219   2.185   2.197   2.250   2.296   2.243   2.295   2.279   2.261   2.243   2.206   2.283   2.226   2.280   2.314   2.188
   104.50    1.996   2.059   2.008   2.026   1.967   1.989   1.978   1.958   2.112   2.035   1.996   2.057   2.026   2.072   2.104   2.141   2.204   2.281   2.241   2.224   2.197   2.173   2.297   2.331   2.228   2.287   2.266   2.142   2.209   2.219   2.184
    99.67    2.029   2.088   2.025   1.989   1.981   1.996   1.958   2.065   2.070   2.022   1.923   1.970   1.942   1.913   2.035   2.164   2.307   2.358   2.247   2.232   2.223   2.244   2.346   2.284   2.257   2.247   2.134   2.158   2.154   2.110   2.018
    94.83    2.131   2.138   2.062   2.047   2.193   2.138   2.028   2.029   2.030   1.977   1.931   1.967   2.034   1.996   2.052   2.223   2.393   2.403   2.341   2.335   2.299   2.292   2.320   2.309   2.227   2.155   2.086   2.176   2.126   2.005   2.001
    90.00    2.126   2.189   2.159   2.185   2.168   2.127   2.009   2.016   2.071   2.077   1.926   1.976   2.074   2.080   2.141   2.271   2.402   2.429   2.364   2.382   2.286   2.317   2.214   2.283   2.148   2.159   2.078   2.005   2.044   2.032   2.039
    85.17    2.193   2.209   2.126   2.074   2.095   2.038   2.075   2.058   2.125   2.068   2.036   2.085   2.155   2.078   2.152   2.282   2.344   2.415   2.349   2.252   2.182   2.227   2.191   2.157   2.178   2.026   1.968   1.980   2.010   2.100   2.038
    80.33    2.193   2.233   2.158   2.098   2.101   2.115   2.059   2.070   2.094   2.163   2.205   2.199   2.215   2.108   2.101   2.219   2.285   2.271   2.171   2.161   2.234   2.247   2.174   2.165   2.220   2.062   1.982   1.948   2.006   2.074   2.063
    75.50    2.273   2.267   2.191   2.132   2.141   2.159   2.010   2.065   2.113   2.161   2.261   2.171   2.230   2.125   2.183   2.248   2.259   2.251   2.163   2.190   2.141   2.173   2.201   2.124   2.310   2.184   2.149   2.117   2.052   2.123   2.042
    70.67    2.327   2.276   2.314   2.241   2.237   2.116   2.097   2.032   2.182   2.172   2.311   2.221   2.145   2.119   2.151   2.209   2.182   2.267   2.281   2.250   2.204   2.265   2.262   2.138   2.218   2.289   2.179   2.130   2.077   2.206   2.218
    65.83    2.311   2.207   2.296   2.211   2.110   2.113   2.088   2.053   2.106   2.245   2.347   2.289   2.213   2.189   2.185   2.318   2.248   2.299   2.292   2.289   2.263   2.299   2.267   2.317   2.310   2.309   2.235   2.192   2.231   2.301   2.189
    61.00    2.231   2.280   2.270   2.198   2.174   2.227   2.216   2.213   2.185   2.155   2.341   2.232   2.232   2.265   2.312   2.375   2.235   2.227   2.232   2.336   2.311   2.279   2.305   2.244   2.240   2.313   2.236   2.233   2.314   2.283   2.243
    56.17    2.227   2.221   2.262   2.210   2.262   2.243   2.154   2.172   2.142   2.188   2.252   2.226   2.199   2.201   2.284   2.220   2.241   2.248   2.232   2.381   2.351   2.233   2.226   2.207   2.302   2.340   2.231   2.206   2.261   2.224   2.121
    51.33    2.271   2.196   2.236   2.276   2.267   2.228   2.149   2.173   2.148   2.232   2.163   2.129   2.141   2.208   2.298   2.239   2.197   2.220   2.156   2.260   2.274   2.228   2.189   2.258   2.381   2.333   2.302   2.289   2.223   2.164   2.130
    46.50    2.222   2.294   2.249   2.345   2.194   2.077   2.134   2.180   2.214   2.305   2.275   2.158   2.122   2.228   2.219   2.195   2.099   2.141   2.055   2.172   2.176   2.184   2.314   2.308   2.416   2.414   2.415   2.405   2.307   2.198   2.104
    41.67    2.316   2.338   2.332   2.354   2.260   2.121   2.095   2.212   2.232   2.263   2.231   2.188   2.127   2.092   2.128   2.109   2.139   2.089   2.051   2.111   2.122   2.161   2.271   2.277   2.288   2.399   2.464   2.424   2.357   2.300   2.087
    36.83    2.227   2.337   2.269   2.266   2.132   2.149   2.104   2.137   2.124   2.186   2.231   2.084   2.172   2.117   2.111   2.227   2.209   2.191   2.206   2.189   2.131   2.215   2.186   2.122   2.245   2.307   2.361   2.387   2.293   2.210   2.241
    32.00    2.094   2.199   2.245   2.235   2.146   2.140   2.066   2.071   2.081   2.219   2.220   2.179   2.187   2.169   2.208   2.243   2.267   2.301   2.272   2.177   2.070   2.177   2.293   2.293   2.345   2.305   2.340   2.355   2.374   2.379   2.255
    27.17    2.051   2.108   2.185   2.159   2.102   2.141   2.044   2.074   2.095   2.165   2.250   2.184   2.235   2.174   2.170   2.202   2.210   2.223   2.311   2.156   2.140   2.241   2.195   2.201   2.245   2.235   2.278   2.365   2.367   2.348   2.288
    22.33    1.969   2.043   1.982   2.083   2.098   2.045   1.993   2.056   2.085   2.080   2.119   2.080   2.181   2.160   2.066   2.046   2.074   2.165   2.149   2.130   2.050   2.034   2.101   2.143   2.113   2.135   2.218   2.352   2.294   2.388   2.292
    17.50    1.975   1.961   1.936   2.021   2.015   1.949   1.964   2.001   2.096   2.117   2.080   2.017   2.093   2.057   1.960   1.936   2.015   2.140   2.057   2.072   1.973   2.039   2.117   2.089   2.171   2.146   2.156   2.263   2.264   2.292   2.267

   Height   Standard deviation at grid points for the v component:
   162.50    1.606   1.606   1.606   1.606   1.606   1.606   1.606   1.606   1.606   1.606   1.606   1.606   1.606   1.606   1.606   1.606   1.606   1.606   1.606   1.606   1.606   1.606   1.606   1.606   1.606   1.606   1.606   1.606   1.606   1.606   1.606
   157.67    1.606   1.606   1.606   1.606   1.606   1.606   1.606   1.606   1.606   1.606   1.606   1.606   1.606   1.606   1.606   1.606   1.606   1.606   1.606   1.606   1.606   1.606   1.606   1.606   1.606   1.606   1.606   1.606   1.606   1.606   1.606
   152.83    1.606   1.606   1.606   1.606   1.606   1.606   1.606   1.606   1.606   1.606   1.606   1.606   1.606   1.606   1.606   1.606   1.606   1.606   1.606   1.606   1.606   1.606   1.606   1.606   1.606   1.606   1.606   1.606   1.606   1.606   1.606
   148.00    1.606   1.606   1.606   1.606   1.606   1.606   1.606   1.606   1.606   1.606   1.606   1.606   1.606   1.606   1.606   1.606   1.606   1.606   1.606   1.606   1.606   1.606   1.606   1.606   1.606   1.606   1.606   1.606   1.606   1.606   1.606
   143.17    1.606   1.606   1.606   1.606   1.606   1.606   1.606   1.606   1.606   1.606   1.606   1.606   1.606   1.606   1.606   1.606   1.606   1.606   1.606   1.606   1.606   1.606   1.606   1.606   1.606   1.606   1.606   1.606   1.606   1.606   1.606
   138.33    1.606   1.606   1.606   1.606   1.606   1.606   1.606   1.606   1.606   1.606   1.606   1.606   1.606   1.606   1.606   1.606   1.606   1.606   1.606   1.606   1.606   1.606   1.606   1.606   1.606   1.606   1.606   1.606   1.606   1.606   1.606
   133.50    1.606   1.606   1.606   1.606   1.606   1.606   1.606   1.606   1.606   1.606   1.606   1.606   1.606   1.606   1.606   1.606   1.606   1.606   1.606   1.606   1.606   1.606   1.606   1.606   1.606   1.606   1.606   1.606   1.606   1.606   1.606
   128.67    1.606   1.606   1.606   1.606   1.606   1.606   1.606   1.606   1.606   1.606   1.606   1.606   1.606   1.606   1.606   1.606   1.606   1.606   1.606   1.606   1.606   1.606   1.606   1.606   1.606   1.606   1.606   1.606   1.606   1.606   1.606
   123.83    1.606   1.606   1.606   1.606   1.606   1.606   1.606   1.606   1.606   1.606   1.606   1.606   1.606   1.606   1.606   1.606   1.606   1.606   1.606   1.606   1.606   1.606   1.606   1.606   1.606   1.606   1.606   1.606   1.606   1.606   1.606
   119.00    1.606   1.606   1.606   1.606   1.606   1.606   1.606   1.606   1.606   1.606   1.606   1.606   1.606   1.606   1.606   1.606   1.606   1.606   1.606   1.606   1.606   1.606   1.606   1.606   1.606   1.606   1.606   1.606   1.606   1.606   1.606
   114.17    1.606   1.606   1.606   1.606   1.606   1.606   1.606   1.606   1.606   1.606   1.606   1.606   1.606   1.606   1.606   1.606   1.606   1.606   1.606   1.606   1.606   1.606   1.606   1.606   1.606   1.606   1.606   1.606   1.606   1.606   1.606
   109.33    1.606   1.606   1.606   1.606   1.606   1.606   1.606   1.606   1.606   1.606   1.606   1.606   1.606   1.606   1.606   1.606   1.606   1.606   1.606   1.606   1.606   1.606   1.606   1.606   1.606   1.606   1.606   1.606   1.606   1.606   1.606
   104.50    1.606   1.606   1.606   1.606   1.606   1.606   1.606   1.606   1.606   1.606   1.606   1.606   1.606   1.606   1.606   1.606   1.606   1.606   1.606   1.606   1.606   1.606   1.606   1.606   1.606   1.606   1.606   1.606   1.606   1.606   1.606
    99.67    1.606   1.606   1.606   1.606   1.606   1.606   1.606   1.606   1.606   1.606   1.606   1.606   1.606   1.606   1.606   1.606   1.606   1.606   1.606   1.606   1.606   1.606   1.606   1.606   1.606   1.606   1.606   1.606   1.606   1.606   1.606
    94.83    1.606   1.606   1.606   1.606   1.606   1.606   1.606   1.606   1.606   1.606   1.606   1.606   1.606   1.606   1.606   1.606   1.606   1.606   1.606   1.606   1.606   1.606   1.606   1.606   1.606   1.606   1.606   1.606   1.606   1.606   1.606
    90.00    1.606   1.606   1.606   1.606   1.606   1.606   1.606   1.606   1.606   1.606   1.606   1.606   1.606   1.606   1.606   1.606   1.606   1.606   1.606   1.606   1.606   1.606   1.606   1.606   1.606   1.606   1.606   1.606   1.606   1.606   1.606
    85.17    1.606   1.606   1.606   1.606   1.606   1.606   1.606   1.606   1.606   1.606   1.606   1.606   1.606   1.606   1.606   1.606   1.606   1.606   1.606   1.606   1.606   1.606   1.606   1.606   1.606   1.606   1.606   1.606   1.606   1.606   1.606
    80.33    1.606   1.606   1.606   1.606   1.606   1.606   1.606   1.606   1.606   1.606   1.606   1.606   1.606   1.606   1.606   1.606   1.606   1.606   1.606   1.606   1.606   1.606   1.606   1.606   1.606   1.606   1.606   1.606   1.606   1.606   1.606
    75.50    1.606   1.606   1.606   1.606   1.606   1.606   1.606   1.606   1.606   1.606   1.606   1.606   1.606   1.606   1.606   1.606   1.606   1.606   1.606   1.606   1.606   1.606   1.606   1.606   1.606   1.606   1.606   1.606   1.606   1.606   1.606
    70.67    1.606   1.606   1.606   1.606   1.606   1.606   1.606   1.606   1.606   1.606   1.606   1.606   1.606   1.606   1.606   1.606   1.606   1.606   1.606   1.606   1.606   1.606   1.606   1.606   1.606   1.606   1.606   1.606   1.606   1.606   1.606
    65.83    1.606   1.606   1.606   1.606   1.606   1.606   1.606   1.606   1.606   1.606   1.606   1.606   1.606   1.606   1.606   1.606   1.606   1.606   1.606   1.606   1.606   1.606   1.606   1.606   1.606   1.606   1.606   1.606   1.606   1.606   1.606
    61.00    1.606   1.606   1.606   1.606   1.606   1.606   1.606   1.606   1.606   1.606   1.606   1.606   1.606   1.606   1.606   1.606   1.606   1.606   1.606   1.606   1.606   1.606   1.606   1.606   1.606   1.606   1.606   1.606   1.606   1.606   1.606
    56.17    1.606   1.606   1.606   1.606   1.606   1.606   1.606   1.606   1.606   1.606   1.606   1.606   1.606   1.606   1.606   1.606   1.606   1.606   1.606   1.606   1.606   1.606   1.606   1.606   1.606   1.606   1.606   1.606   1.606   1.606   1.606
    51.33    1.606   1.606   1.606   1.606   1.606   1.606   1.606   1.606   1.606   1.606   1.606   1.606   1.606   1.606   1.606   1.606   1.606   1.606   1.606   1.606   1.606   1.606   1.606   1.606   1.606   1.606   1.606   1.606   1.606   1.606   1.606
    46.50    1.606   1.606   1.606   1.606   1.606   1.606   1.606   1.606   1.606   1.606   1.606   1.606   1.606   1.606   1.606   1.606   1.606   1.606   1.606   1.606   1.606   1.606   1.606   1.606   1.606   1.606   1.606   1.606   1.606   1.606   1.606
    41.67    1.606   1.606   1.606   1.606   1.606   1.606   1.606   1.606   1.606   1.606   1.606   1.606   1.606   1.606   1.606   1.606   1.606   1.606   1.606   1.606   1.606   1.606   1.606   1.606   1.606   1.606   1.606   1.606   1.606   1.606   1.606
    36.83    1.606   1.606   1.606   1.606   1.606   1.606   1.606   1.606   1.606   1.606   1.606   1.606   1.606   1.606   1.606   1.606   1.606   1.606   1.606   1.606   1.606   1.606   1.606   1.606   1.606   1.606   1.606   1.606   1.606   1.606   1.606
    32.00    1.606   1.606   1.606   1.606   1.606   1.606   1.606   1.606   1.606   1.606   1.606   1.606   1.606   1.606   1.606   1.606   1.606   1.606   1.606   1.606   1.606   1.606   1.606   1.606   1.606   1.606   1.606   1.606   1.606   1.606   1.606
    27.17    1.606   1.606   1.606   1.606   1.606   1.606   1.606   1.606   1.606   1.606   1.606   1.606   1.606   1.606   1.606   1.606   1.606   1.606   1.606   1.606   1.606   1.606   1.606   1.606   1.606   1.606   1.606   1.606   1.606   1.606   1.606
    22.33    1.606   1.606   1.606   1.606   1.606   1.606   1.606   1.606   1.606   1.606   1.606   1.606   1.606   1.606   1.606   1.606   1.606   1.606   1.606   1.606   1.606   1.606   1.606   1.606   1.606   1.606   1.606   1.606   1.606   1.606   1.606
    17.50    1.606   1.606   1.606   1.606   1.606   1.606   1.606   1.606   1.606   1.606   1.606   1.606   1.606   1.606   1.606   1.606   1.606   1.606   1.606   1.606   1.606   1.606   1.606   1.606   1.606   1.606   1.606   1.606   1.606   1.606   1.606

   Height   Standard deviation at grid points for the w component:
   162.50    1.000   1.000   1.000   1.000   1.000   1.000   1.000   1.000   1.000   1.000   1.000   1.000   1.000   1.000   1.000   1.000   1.000   1.000   1.000   1.000   1.000   1.000   1.000   1.000   1.000   1.000   1.000   1.000   1.000   1.000   1.000
   157.67    1.000   1.000   1.000   1.000   1.000   1.000   1.000   1.000   1.000   1.000   1.000   1.000   1.000   1.000   1.000   1.000   1.000   1.000   1.000   1.000   1.000   1.000   1.000   1.000   1.000   1.000   1.000   1.000   1.000   1.000   1.000
   152.83    1.000   1.000   1.000   1.000   1.000   1.000   1.000   1.000   1.000   1.000   1.000   1.000   1.000   1.000   1.000   1.000   1.000   1.000   1.000   1.000   1.000   1.000   1.000   1.000   1.000   1.000   1.000   1.000   1.000   1.000   1.000
   148.00    1.000   1.000   1.000   1.000   1.000   1.000   1.000   1.000   1.000   1.000   1.000   1.000   1.000   1.000   1.000   1.000   1.000   1.000   1.000   1.000   1.000   1.000   1.000   1.000   1.000   1.000   1.000   1.000   1.000   1.000   1.000
   143.17    1.000   1.000   1.000   1.000   1.000   1.000   1.000   1.000   1.000   1.000   1.000   1.000   1.000   1.000   1.000   1.000   1.000   1.000   1.000   1.000   1.000   1.000   1.000   1.000   1.000   1.000   1.000   1.000   1.000   1.000   1.000
   138.33    1.000   1.000   1.000   1.000   1.000   1.000   1.000   1.000   1.000   1.000   1.000   1.000   1.000   1.000   1.000   1.000   1.000   1.000   1.000   1.000   1.000   1.000   1.000   1.000   1.000   1.000   1.000   1.000   1.000   1.000   1.000
   133.50    1.000   1.000   1.000   1.000   1.000   1.000   1.000   1.000   1.000   1.000   1.000   1.000   1.000   1.000   1.000   1.000   1.000   1.000   1.000   1.000   1.000   1.000   1.000   1.000   1.000   1.000   1.000   1.000   1.000   1.000   1.000
   128.67    1.000   1.000   1.000   1.000   1.000   1.000   1.000   1.000   1.000   1.000   1.000   1.000   1.000   1.000   1.000   1.000   1.000   1.000   1.000   1.000   1.000   1.000   1.000   1.000   1.000   1.000   1.000   1.000   1.000   1.000   1.000
   123.83    1.000   1.000   1.000   1.000   1.000   1.000   1.000   1.000   1.000   1.000   1.000   1.000   1.000   1.000   1.000   1.000   1.000   1.000   1.000   1.000   1.000   1.000   1.000   1.000   1.000   1.000   1.000   1.000   1.000   1.000   1.000
   119.00    1.000   1.000   1.000   1.000   1.000   1.000   1.000   1.000   1.000   1.000   1.000   1.000   1.000   1.000   1.000   1.000   1.000   1.000   1.000   1.000   1.000   1.000   1.000   1.000   1.000   1.000   1.000   1.000   1.000   1.000   1.000
   114.17    1.000   1.000   1.000   1.000   1.000   1.000   1.000   1.000   1.000   1.000   1.000   1.000   1.000   1.000   1.000   1.000   1.000   1.000   1.000   1.000   1.000   1.000   1.000   1.000   1.000   1.000   1.000   1.000   1.000   1.000   1.000
   109.33    1.000   1.000   1.000   1.000   1.000   1.000   1.000   1.000   1.000   1.000   1.000   1.000   1.000   1.000   1.000   1.000   1.000   1.000   1.000   1.000   1.000   1.000   1.000   1.000   1.000   1.000   1.000   1.000   1.000   1.000   1.000
   104.50    1.000   1.000   1.000   1.000   1.000   1.000   1.000   1.000   1.000   1.000   1.000   1.000   1.000   1.000   1.000   1.000   1.000   1.000   1.000   1.000   1.000   1.000   1.000   1.000   1.000   1.000   1.000   1.000   1.000   1.000   1.000
    99.67    1.000   1.000   1.000   1.000   1.000   1.000   1.000   1.000   1.000   1.000   1.000   1.000   1.000   1.000   1.000   1.000   1.000   1.000   1.000   1.000   1.000   1.000   1.000   1.000   1.000   1.000   1.000   1.000   1.000   1.000   1.000
    94.83    1.000   1.000   1.000   1.000   1.000   1.000   1.000   1.000   1.000   1.000   1.000   1.000   1.000   1.000   1.000   1.000   1.000   1.000   1.000   1.000   1.000   1.000   1.000   1.000   1.000   1.000   1.000   1.000   1.000   1.000   1.000
    90.00    1.000   1.000   1.000   1.000   1.000   1.000   1.000   1.000   1.000   1.000   1.000   1.000   1.000   1.000   1.000   1.000   1.000   1.000   1.000   1.000   1.000   1.000   1.000   1.000   1.000   1.000   1.000   1.000   1.000   1.000   1.000
    85.17    1.000   1.000   1.000   1.000   1.000   1.000   1.000   1.000   1.000   1.000   1.000   1.000   1.000   1.000   1.000   1.000   1.000   1.000   1.000   1.000   1.000   1.000   1.000   1.000   1.000   1.000   1.000   1.000   1.000   1.000   1.000
    80.33    1.000   1.000   1.000   1.000   1.000   1.000   1.000   1.000   1.000   1.000   1.000   1.000   1.000   1.000   1.000   1.000   1.000   1.000   1.000   1.000   1.000   1.000   1.000   1.000   1.000   1.000   1.000   1.000   1.000   1.000   1.000
    75.50    1.000   1.000   1.000   1.000   1.000   1.000   1.000   1.000   1.000   1.000   1.000   1.000   1.000   1.000   1.000   1.000   1.000   1.000   1.000   1.000   1.000   1.000   1.000   1.000   1.000   1.000   1.000   1.000   1.000   1.000   1.000
    70.67    1.000   1.000   1.000   1.000   1.000   1.000   1.000   1.000   1.000   1.000   1.000   1.000   1.000   1.000   1.000   1.000   1.000   1.000   1.000   1.000   1.000   1.000   1.000   1.000   1.000   1.000   1.000   1.000   1.000   1.000   1.000
    65.83    1.000   1.000   1.000   1.000   1.000   1.000   1.000   1.000   1.000   1.000   1.000   1.000   1.000   1.000   1.000   1.000   1.000   1.000   1.000   1.000   1.000   1.000   1.000   1.000   1.000   1.000   1.000   1.000   1.000   1.000   1.000
    61.00    1.000   1.000   1.000   1.000   1.000   1.000   1.000   1.000   1.000   1.000   1.000   1.000   1.000   1.000   1.000   1.000   1.000   1.000   1.000   1.000   1.000   1.000   1.000   1.000   1.000   1.000   1.000   1.000   1.000   1.000   1.000
    56.17    1.000   1.000   1.000   1.000   1.000   1.000   1.000   1.000   1.000   1.000   1.000   1.000   1.000   1.000   1.000   1.000   1.000   1.000   1.000   1.000   1.000   1.000   1.000   1.000   1.000   1.000   1.000   1.000   1.000   1.000   1.000
    51.33    1.000   1.000   1.000   1.000   1.000   1.000   1.000   1.000   1.000   1.000   1.000   1.000   1.000   1.000   1.000   1.000   1.000   1.000   1.000   1.000   1.000   1.000   1.000   1.000   1.000   1.000   1.000   1.000   1.000   1.000   1.000
    46.50    1.000   1.000   1.000   1.000   1.000   1.000   1.000   1.000   1.000   1.000   1.000   1.000   1.000   1.000   1.000   1.000   1.000   1.000   1.000   1.000   1.000   1.000   1.000   1.000   1.000   1.000   1.000   1.000   1.000   1.000   1.000
    41.67    1.000   1.000   1.000   1.000   1.000   1.000   1.000   1.000   1.000   1.000   1.000   1.000   1.000   1.000   1.000   1.000   1.000   1.000   1.000   1.000   1.000   1.000   1.000   1.000   1.000   1.000   1.000   1.000   1.000   1.000   1.000
    36.83    1.000   1.000   1.000   1.000   1.000   1.000   1.000   1.000   1.000   1.000   1.000   1.000   1.000   1.000   1.000   1.000   1.000   1.000   1.000   1.000   1.000   1.000   1.000   1.000   1.000   1.000   1.000   1.000   1.000   1.000   1.000
    32.00    1.000   1.000   1.000   1.000   1.000   1.000   1.000   1.000   1.000   1.000   1.000   1.000   1.000   1.000   1.000   1.000   1.000   1.000   1.000   1.000   1.000   1.000   1.000   1.000   1.000   1.000   1.000   1.000   1.000   1.000   1.000
    27.17    1.000   1.000   1.000   1.000   1.000   1.000   1.000   1.000   1.000   1.000   1.000   1.000   1.000   1.000   1.000   1.000   1.000   1.000   1.000   1.000   1.000   1.000   1.000   1.000   1.000   1.000   1.000   1.000   1.000   1.000   1.000
    22.33    1.000   1.000   1.000   1.000   1.000   1.000   1.000   1.000   1.000   1.000   1.000   1.000   1.000   1.000   1.000   1.000   1.000   1.000   1.000   1.000   1.000   1.000   1.000   1.000   1.000   1.000   1.000   1.000   1.000   1.000   1.000
    17.50    1.000   1.000   1.000   1.000   1.000   1.000   1.000   1.000   1.000   1.000   1.000   1.000   1.000   1.000   1.000   1.000   1.000   1.000   1.000   1.000   1.000   1.000   1.000   1.000   1.000   1.000   1.000   1.000   1.000   1.000   1.000

   Mean standard deviation across all grid points:
      u component:    2.164 m/s
      v component:    1.606 m/s
      w component:    1.000 m/s


U-component (X) statistics from the hub grid point:

   Mean =  12.0000 m/s
   TI   =  18.9215 %

Nyquist frequency of turbulent wind field =        10.000 Hz


Processing complete.  142.9 CPU seconds used.
