
This summary file was generated by TurbSim (v1.06.00, 21-Sep-2012) on 08-Oct-2019 at 19:04:33.

